!-Generator IDFEditor 1.50
!-Option SortedOrder ViewInIPunits

!-NOTE: All comments with '!-' are ignored by the IDFEditor and are generated automatically.
!-      Use '!' comments if they need to be retained when using the IDFEditor.


!-   ===========  ALL OBJECTS IN CLASS: VERSION ===========

Version,
    9.2;                     !- Version Identifier


!-   ===========  ALL OBJECTS IN CLASS: SIMULATIONCONTROL ===========

SimulationControl,
    No,                      !- Do Zone Sizing Calculation
    No,                      !- Do System Sizing Calculation
    No,                      !- Do Plant Sizing Calculation
    No,                      !- Run Simulation for Sizing Periods
    Yes;                     !- Run Simulation for Weather File Run Periods


!-   ===========  ALL OBJECTS IN CLASS: BUILDING ===========

Building,
    NoSunspace Rooftop,      !- Name
    0.0,                     !- North Axis {deg}
    City,                    !- Terrain
    0.04,                    !- Loads Convergence Tolerance Value
    0.4,                     !- Temperature Convergence Tolerance Value {deltaC}
    FullExteriorWithReflections,  !- Solar Distribution
    100,                     !- Maximum Number of Warmup Days
    6;                       !- Minimum Number of Warmup Days


!-   ===========  ALL OBJECTS IN CLASS: TIMESTEP ===========

Timestep,
    4;                       !- Number of Timesteps per Hour


!-   ===========  ALL OBJECTS IN CLASS: RUNPERIOD ===========

RunPeriod,
    May,                     !- Name
    5,                       !- Begin Month
    1,                       !- Begin Day of Month
    ,                        !- Begin Year
    5,                       !- End Month
    31,                      !- End Day of Month
    ,                        !- End Year
    ,                        !- Day of Week for Start Day
    Yes,                     !- Use Weather File Holidays and Special Days
    Yes,                     !- Use Weather File Daylight Saving Period
    No,                      !- Apply Weekend Holiday Rule
    Yes,                     !- Use Weather File Rain Indicators
    Yes;                     !- Use Weather File Snow Indicators


!-   ===========  ALL OBJECTS IN CLASS: RUNPERIODCONTROL:SPECIALDAYS ===========

RunPeriodControl:SpecialDays,
    New Years Day,           !- Name
    January 1,               !- Start Date
    1,                       !- Duration {days}
    Holiday;                 !- Special Day Type

RunPeriodControl:SpecialDays,
    Veterans Day,            !- Name
    November 11,             !- Start Date
    1,                       !- Duration {days}
    Holiday;                 !- Special Day Type

RunPeriodControl:SpecialDays,
    Christmas,               !- Name
    December 25,             !- Start Date
    1,                       !- Duration {days}
    Holiday;                 !- Special Day Type

RunPeriodControl:SpecialDays,
    Independence Day,        !- Name
    July 4,                  !- Start Date
    1,                       !- Duration {days}
    Holiday;                 !- Special Day Type

RunPeriodControl:SpecialDays,
    MLK Day,                 !- Name
    3rd Monday in January,   !- Start Date
    1,                       !- Duration {days}
    Holiday;                 !- Special Day Type

RunPeriodControl:SpecialDays,
    Presidents Day,          !- Name
    3rd Monday in February,  !- Start Date
    1,                       !- Duration {days}
    Holiday;                 !- Special Day Type

RunPeriodControl:SpecialDays,
    Memorial Day,            !- Name
    Last Monday in May,      !- Start Date
    1,                       !- Duration {days}
    Holiday;                 !- Special Day Type

RunPeriodControl:SpecialDays,
    Labor Day,               !- Name
    1st Monday in September, !- Start Date
    1,                       !- Duration {days}
    Holiday;                 !- Special Day Type

RunPeriodControl:SpecialDays,
    Columbus Day,            !- Name
    2nd Monday in October,   !- Start Date
    1,                       !- Duration {days}
    Holiday;                 !- Special Day Type

RunPeriodControl:SpecialDays,
    Thanksgiving,            !- Name
    4th Thursday in November,!- Start Date
    1,                       !- Duration {days}
    Holiday;                 !- Special Day Type


!-   ===========  ALL OBJECTS IN CLASS: RUNPERIODCONTROL:DAYLIGHTSAVINGTIME ===========

! Daylight Saving Period in US
RunPeriodControl:DaylightSavingTime,
    2nd Sunday in March,     !- Start Date
    1st Sunday in November;  !- End Date


!-   ===========  ALL OBJECTS IN CLASS: SCHEDULETYPELIMITS ===========

ScheduleTypeLimits,
    Any Number;              !- Name

ScheduleTypeLimits,
    Fraction,                !- Name
    0.0,                     !- Lower Limit Value
    1.0,                     !- Upper Limit Value
    CONTINUOUS;              !- Numeric Type

ScheduleTypeLimits,
    Temperature,             !- Name
    -60,                     !- Lower Limit Value
    200,                     !- Upper Limit Value
    CONTINUOUS;              !- Numeric Type

ScheduleTypeLimits,
    On/Off,                  !- Name
    0,                       !- Lower Limit Value
    1,                       !- Upper Limit Value
    DISCRETE;                !- Numeric Type

ScheduleTypeLimits,
    Control Type,            !- Name
    0,                       !- Lower Limit Value
    4,                       !- Upper Limit Value
    DISCRETE;                !- Numeric Type

ScheduleTypeLimits,
    Humidity,                !- Name
    10,                      !- Lower Limit Value
    90,                      !- Upper Limit Value
    CONTINUOUS;              !- Numeric Type

ScheduleTypeLimits,
    Number;                  !- Name


!-   ===========  ALL OBJECTS IN CLASS: SCHEDULE:COMPACT ===========

Schedule:Compact,
    Always On,               !- Name
    Fraction,                !- Schedule Type Limits Name
    Through: 12/31,          !- Field 1
    For: AllDays,            !- Field 2
    Until: 24:00,            !- Field 3
    1.0;                     !- Field 4

Schedule:Compact,
    Always Off,              !- Name
    Fraction,                !- Schedule Type Limits Name
    Through: 12/31,          !- Field 1
    For: AllDays,            !- Field 2
    Until: 24:00,            !- Field 3
    0.0;                     !- Field 4

Schedule:Compact,
    Air Velocity Schedule,   !- Name
    Any Number,              !- Schedule Type Limits Name
    Through: 05/31,          !- Field 1
    For: AllDays,            !- Field 2
    Until: 24:00,            !- Field 3
    0.1,                     !- Field 4
    Through: 09/30,          !- Field 5
    For: AllDays,            !- Field 6
    Until: 24:00,            !- Field 7
    0.7,                     !- Field 8
    Through: 12/31,          !- Field 9
    For: AllDays,            !- Field 10
    Until: 24:00,            !- Field 11
    0.1;                     !- Field 12

Schedule:Compact,
    Heating Setpoint Schedule,  !- Name
    Temperature,             !- Schedule Type Limits Name
    Through: 05/31,          !- Field 1
    For: AllDays,            !- Field 2
    Until: 06:00,            !- Field 3
    18.3,                    !- Field 4
    Until: 22:00,            !- Field 5
    20,                      !- Field 6
    Until: 24:00,            !- Field 7
    18.3,                    !- Field 8
    Through: 09/30,          !- Field 9
    For: AllDays,            !- Field 10
    Until: 24:00,            !- Field 11
    15.5,                    !- Field 12
    Through: 12/31,          !- Field 13
    For: AllDays,            !- Field 14
    Until: 06:00,            !- Field 15
    18.3,                    !- Field 16
    Until: 22:00,            !- Field 17
    20,                      !- Field 18
    Until: 24:00,            !- Field 19
    18.3;                    !- Field 20

Schedule:Compact,
    Cooling Setpoint Schedule,  !- Name
    Temperature,             !- Schedule Type Limits Name
    Through: 05/31,          !- Field 1
    For: AllDays,            !- Field 2
    Until: 24:00,            !- Field 3
    28,                      !- Field 4
    Through: 09/30,          !- Field 5
    For: AllDays,            !- Field 6
    Until: 24:00,            !- Field 7
    25,                      !- Field 8
    Through: 12/31,          !- Field 9
    For: AllDays,            !- Field 10
    Until: 24:00,            !- Field 11
    28;                      !- Field 12


!-   ===========  ALL OBJECTS IN CLASS: MATERIAL ===========

Material,
    F08 Metal surface,       !- Name
    Smooth,                  !- Roughness
    0.0008,                  !- Thickness {m}
    45.28,                   !- Conductivity {W/m-K}
    7824,                    !- Density {kg/m3}
    500;                     !- Specific Heat {J/kg-K}

Material,
    I01 25mm insulation board,  !- Name
    MediumRough,             !- Roughness
    0.0254,                  !- Thickness {m}
    0.03,                    !- Conductivity {W/m-K}
    43,                      !- Density {kg/m3}
    1210;                    !- Specific Heat {J/kg-K}

Material,
    I02 50mm insulation board,  !- Name
    MediumRough,             !- Roughness
    0.0508,                  !- Thickness {m}
    0.03,                    !- Conductivity {W/m-K}
    43,                      !- Density {kg/m3}
    1210;                    !- Specific Heat {J/kg-K}

Material,
    G01a 19mm gypsum board,  !- Name
    MediumSmooth,            !- Roughness
    0.019,                   !- Thickness {m}
    0.16,                    !- Conductivity {W/m-K}
    800,                     !- Density {kg/m3}
    1090;                    !- Specific Heat {J/kg-K}

Material,
    M11 100mm lightweight concrete,  !- Name
    MediumRough,             !- Roughness
    0.1016,                  !- Thickness {m}
    0.53,                    !- Conductivity {W/m-K}
    1280,                    !- Density {kg/m3}
    840;                     !- Specific Heat {J/kg-K}

Material,
    F16 Acoustic tile,       !- Name
    MediumSmooth,            !- Roughness
    0.0191,                  !- Thickness {m}
    0.06,                    !- Conductivity {W/m-K}
    368,                     !- Density {kg/m3}
    590;                     !- Specific Heat {J/kg-K}

Material,
    M01 100mm brick,         !- Name
    MediumRough,             !- Roughness
    0.1016,                  !- Thickness {m}
    0.89,                    !- Conductivity {W/m-K}
    1920,                    !- Density {kg/m3}
    790;                     !- Specific Heat {J/kg-K}

Material,
    M15 200mm heavyweight concrete,  !- Name
    MediumRough,             !- Roughness
    0.2032,                  !- Thickness {m}
    1.95,                    !- Conductivity {W/m-K}
    2240,                    !- Density {kg/m3}
    900;                     !- Specific Heat {J/kg-K}

Material,
    M05 200mm concrete block,!- Name
    MediumRough,             !- Roughness
    0.2032,                  !- Thickness {m}
    1.11,                    !- Conductivity {W/m-K}
    800,                     !- Density {kg/m3}
    920;                     !- Specific Heat {J/kg-K}

Material,
    G05 25mm wood,           !- Name
    MediumSmooth,            !- Roughness
    0.0254,                  !- Thickness {m}
    0.15,                    !- Conductivity {W/m-K}
    608,                     !- Density {kg/m3}
    1630;                    !- Specific Heat {J/kg-K}

Material,
    F11 Wood siding,         !- Name
    MediumSmooth,            !- Roughness
    0.0127,                  !- Thickness {m}
    0.09,                    !- Conductivity {W/m-K}
    592,                     !- Density {kg/m3}
    1170;                    !- Specific Heat {J/kg-K}

Material,
    G02 16mm plywood,        !- Name
    Smooth,                  !- Roughness
    0.0159,                  !- Thickness {m}
    0.12,                    !- Conductivity {W/m-K}
    544,                     !- Density {kg/m3}
    1210;                    !- Specific Heat {J/kg-K}

Material,
    Wood Studs plus insulation,  !- Name
    MediumRough,             !- Roughness
    0.0889,                  !- Thickness {m}
    0.0525,                  !- Conductivity {W/m-K}
    960,                     !- Density {kg/m3}
    1200,                    !- Specific Heat {J/kg-K}
    0.9,                     !- Thermal Absorptance
    0.7,                     !- Solar Absorptance
    0.7;                     !- Visible Absorptance

Material,
    M14a 10cm heavyweight concrete,  !- Name
    MediumRough,             !- Roughness
    0.1,                     !- Thickness {m}
    1.95,                    !- Conductivity {W/m-K}
    2240,                    !- Density {kg/m3}
    900;                     !- Specific Heat {J/kg-K}

Material,
    G05a 38mm wood,          !- Name
    MediumSmooth,            !- Roughness
    0.0381,                  !- Thickness {m}
    0.15,                    !- Conductivity {W/m-K}
    608,                     !- Density {kg/m3}
    1630;                    !- Specific Heat {J/kg-K}

Material,
    M14b 20cm heavyweight concrete,  !- Name
    MediumRough,             !- Roughness
    0.2,                     !- Thickness {m}
    1.95,                    !- Conductivity {W/m-K}
    2240,                    !- Density {kg/m3}
    900;                     !- Specific Heat {J/kg-K}

Material,
    F14 Slate or tile,       !- Name
    VeryRough,               !- Roughness
    0.0127,                  !- Thickness {m}
    1.59,                    !- Conductivity {W/m-K}
    1920,                    !- Density {kg/m3}
    1260;                    !- Specific Heat {J/kg-K}

Material,
    I03 75mm insulation board,  !- Name
    MediumRough,             !- Roughness
    0.0762,                  !- Thickness {m}
    0.03,                    !- Conductivity {W/m-K}
    43,                      !- Density {kg/m3}
    1210;                    !- Specific Heat {J/kg-K}

Material,
    15mm insulation board,   !- Name
    MediumRough,             !- Roughness
    0.015,                   !- Thickness {m}
    0.03,                    !- Conductivity {W/m-K}
    43,                      !- Density {kg/m3}
    1210;                    !- Specific Heat {J/kg-K}


!-   ===========  ALL OBJECTS IN CLASS: MATERIAL:AIRGAP ===========

Material:AirGap,
    F04 Wall air space resistance,  !- Name
    0.15;                    !- Thermal Resistance {m2-K/W}

Material:AirGap,
    F05 Ceiling air space resistance,  !- Name
    0.18;                    !- Thermal Resistance {m2-K/W}


!-   ===========  ALL OBJECTS IN CLASS: WINDOWMATERIAL:GLAZING ===========

WindowMaterial:Glazing,
    Clear 3mm,               !- Name
    SpectralAverage,         !- Optical Data Type
    ,                        !- Window Glass Spectral Data Set Name
    0.003,                   !- Thickness {m}
    0.837,                   !- Solar Transmittance at Normal Incidence
    0.075,                   !- Front Side Solar Reflectance at Normal Incidence
    0.075,                   !- Back Side Solar Reflectance at Normal Incidence
    0.898,                   !- Visible Transmittance at Normal Incidence
    0.081,                   !- Front Side Visible Reflectance at Normal Incidence
    0.081,                   !- Back Side Visible Reflectance at Normal Incidence
    0,                       !- Infrared Transmittance at Normal Incidence
    0.84,                    !- Front Side Infrared Hemispherical Emissivity
    0.84,                    !- Back Side Infrared Hemispherical Emissivity
    0.9;                     !- Conductivity {W/m-K}

WindowMaterial:Glazing,
    Zone123 Exterior Pane,   !- Name
    Spectral,                !- Optical Data Type
    Zone123 Exterior Pane Spec,  !- Window Glass Spectral Data Set Name
    0.004623,                !- Thickness {m}
    ,                        !- Solar Transmittance at Normal Incidence
    ,                        !- Front Side Solar Reflectance at Normal Incidence
    ,                        !- Back Side Solar Reflectance at Normal Incidence
    ,                        !- Visible Transmittance at Normal Incidence
    ,                        !- Front Side Visible Reflectance at Normal Incidence
    ,                        !- Back Side Visible Reflectance at Normal Incidence
    0.000000,                !- Infrared Transmittance at Normal Incidence
    0.840000,                !- Front Side Infrared Hemispherical Emissivity
    0.020884,                !- Back Side Infrared Hemispherical Emissivity
    1.000345;                !- Conductivity {W/m-K}

WindowMaterial:Glazing,
    Zone123 Interior Pane,   !- Name
    Spectral,                !- Optical Data Type
    Zone123 Interior Pane Spec,  !- Window Glass Spectral Data Set Name
    0.004000,                !- Thickness {m}
    ,                        !- Solar Transmittance at Normal Incidence
    ,                        !- Front Side Solar Reflectance at Normal Incidence
    ,                        !- Back Side Solar Reflectance at Normal Incidence
    ,                        !- Visible Transmittance at Normal Incidence
    ,                        !- Front Side Visible Reflectance at Normal Incidence
    ,                        !- Back Side Visible Reflectance at Normal Incidence
    0.000000,                !- Infrared Transmittance at Normal Incidence
    0.840000,                !- Front Side Infrared Hemispherical Emissivity
    0.840000,                !- Back Side Infrared Hemispherical Emissivity
    1.000000;                !- Conductivity {W/m-K}

WindowMaterial:Glazing,
    Zone4 Exterior Pane,     !- Name
    Spectral,                !- Optical Data Type
    Zone4 Exterior Pane Spec,!- Window Glass Spectral Data Set Name
    0.003835,                !- Thickness {m}
    ,                        !- Solar Transmittance at Normal Incidence
    ,                        !- Front Side Solar Reflectance at Normal Incidence
    ,                        !- Back Side Solar Reflectance at Normal Incidence
    ,                        !- Visible Transmittance at Normal Incidence
    ,                        !- Front Side Visible Reflectance at Normal Incidence
    ,                        !- Back Side Visible Reflectance at Normal Incidence
    0.000000,                !- Infrared Transmittance at Normal Incidence
    0.840000,                !- Front Side Infrared Hemispherical Emissivity
    0.027035,                !- Back Side Infrared Hemispherical Emissivity
    1.000345;                !- Conductivity {W/m-K}

WindowMaterial:Glazing,
    Zone4 Interior Pane,     !- Name
    Spectral,                !- Optical Data Type
    Zone4 Interior Pane Spec,!- Window Glass Spectral Data Set Name
    0.003835,                !- Thickness {m}
    ,                        !- Solar Transmittance at Normal Incidence
    ,                        !- Front Side Solar Reflectance at Normal Incidence
    ,                        !- Back Side Solar Reflectance at Normal Incidence
    ,                        !- Visible Transmittance at Normal Incidence
    ,                        !- Front Side Visible Reflectance at Normal Incidence
    ,                        !- Back Side Visible Reflectance at Normal Incidence
    0.000000,                !- Infrared Transmittance at Normal Incidence
    0.840000,                !- Front Side Infrared Hemispherical Emissivity
    0.840000,                !- Back Side Infrared Hemispherical Emissivity
    1.000345;                !- Conductivity {W/m-K}

WindowMaterial:Glazing,
    Zone5678 Exterior Pane,  !- Name
    Spectral,                !- Optical Data Type
    Zone5678 Exterior Pane Spec,  !- Window Glass Spectral Data Set Name
    0.004000,                !- Thickness {m}
    ,                        !- Solar Transmittance at Normal Incidence
    ,                        !- Front Side Solar Reflectance at Normal Incidence
    ,                        !- Back Side Solar Reflectance at Normal Incidence
    ,                        !- Visible Transmittance at Normal Incidence
    ,                        !- Front Side Visible Reflectance at Normal Incidence
    ,                        !- Back Side Visible Reflectance at Normal Incidence
    0.000000,                !- Infrared Transmittance at Normal Incidence
    0.840000,                !- Front Side Infrared Hemispherical Emissivity
    0.840000,                !- Back Side Infrared Hemispherical Emissivity
    1.000000;                !- Conductivity {W/m-K}

WindowMaterial:Glazing,
    Zone5678 Interior Pane,  !- Name
    Spectral,                !- Optical Data Type
    Zone5678 Interior Pane Spec,  !- Window Glass Spectral Data Set Name
    0.003860,                !- Thickness {m}
    ,                        !- Solar Transmittance at Normal Incidence
    ,                        !- Front Side Solar Reflectance at Normal Incidence
    ,                        !- Back Side Solar Reflectance at Normal Incidence
    ,                        !- Visible Transmittance at Normal Incidence
    ,                        !- Front Side Visible Reflectance at Normal Incidence
    ,                        !- Back Side Visible Reflectance at Normal Incidence
    0.000000,                !- Infrared Transmittance at Normal Incidence
    0.024733,                !- Front Side Infrared Hemispherical Emissivity
    0.841906,                !- Back Side Infrared Hemispherical Emissivity
    1.000000;                !- Conductivity {W/m-K}

WindowMaterial:Glazing,
    Glass_9811_Layer,        !- Name
    Spectral,                !- Optical Data Type
    Glass_9811_Layer_SpecDat,!- Window Glass Spectral Data Set Name
    0.003200,                !- Thickness {m}
    ,                        !- Solar Transmittance at Normal Incidence
    ,                        !- Front Side Solar Reflectance at Normal Incidence
    ,                        !- Back Side Solar Reflectance at Normal Incidence
    ,                        !- Visible Transmittance at Normal Incidence
    ,                        !- Front Side Visible Reflectance at Normal Incidence
    ,                        !- Back Side Visible Reflectance at Normal Incidence
    0.000000,                !- Infrared Transmittance at Normal Incidence
    0.840000,                !- Front Side Infrared Hemispherical Emissivity
    0.840000,                !- Back Side Infrared Hemispherical Emissivity
    1.000000;                !- Conductivity {W/m-K}

WindowMaterial:Glazing,
    Glass_3334F_Layer,       !- Name
    Spectral,                !- Optical Data Type
    Glass_3334F_Layer_SpecDat,  !- Window Glass Spectral Data Set Name
    0.002972,                !- Thickness {m}
    ,                        !- Solar Transmittance at Normal Incidence
    ,                        !- Front Side Solar Reflectance at Normal Incidence
    ,                        !- Back Side Solar Reflectance at Normal Incidence
    ,                        !- Visible Transmittance at Normal Incidence
    ,                        !- Front Side Visible Reflectance at Normal Incidence
    ,                        !- Back Side Visible Reflectance at Normal Incidence
    0.000000,                !- Infrared Transmittance at Normal Incidence
    0.302139,                !- Front Side Infrared Hemispherical Emissivity
    0.840000,                !- Back Side Infrared Hemispherical Emissivity
    1.000345;                !- Conductivity {W/m-K}

WindowMaterial:Glazing,
    Glass_26138_Layer,       !- Name
    Spectral,                !- Optical Data Type
    Glass_26138_Layer_SpecDat,  !- Window Glass Spectral Data Set Name
    0.004623,                !- Thickness {m}
    ,                        !- Solar Transmittance at Normal Incidence
    ,                        !- Front Side Solar Reflectance at Normal Incidence
    ,                        !- Back Side Solar Reflectance at Normal Incidence
    ,                        !- Visible Transmittance at Normal Incidence
    ,                        !- Front Side Visible Reflectance at Normal Incidence
    ,                        !- Back Side Visible Reflectance at Normal Incidence
    0.000000,                !- Infrared Transmittance at Normal Incidence
    0.840000,                !- Front Side Infrared Hemispherical Emissivity
    0.020884,                !- Back Side Infrared Hemispherical Emissivity
    1.000345;                !- Conductivity {W/m-K}

WindowMaterial:Glazing,
    Glass_4116_Layer,        !- Name
    Spectral,                !- Optical Data Type
    Glass_4116_Layer_SpecDat,!- Window Glass Spectral Data Set Name
    0.004000,                !- Thickness {m}
    ,                        !- Solar Transmittance at Normal Incidence
    ,                        !- Front Side Solar Reflectance at Normal Incidence
    ,                        !- Back Side Solar Reflectance at Normal Incidence
    ,                        !- Visible Transmittance at Normal Incidence
    ,                        !- Front Side Visible Reflectance at Normal Incidence
    ,                        !- Back Side Visible Reflectance at Normal Incidence
    0.000000,                !- Infrared Transmittance at Normal Incidence
    0.840000,                !- Front Side Infrared Hemispherical Emissivity
    0.840000,                !- Back Side Infrared Hemispherical Emissivity
    1.000000;                !- Conductivity {W/m-K}


!-   ===========  ALL OBJECTS IN CLASS: WINDOWMATERIAL:GAS ===========

WindowMaterial:Gas,
    Air 13mm,                !- Name
    Air,                     !- Gas Type
    0.0127;                  !- Thickness {m}

WindowMaterial:Gas,
    Zone123 Gap,             !- Name
    Air,                     !- Gas Type
    0.0095;                  !- Thickness {m}

WindowMaterial:Gas,
    Zone4 Gap,               !- Name
    Air,                     !- Gas Type
    0.0095;                  !- Thickness {m}

WindowMaterial:Gas,
    Gap_1_W_0_0160,          !- Name
    Air,                     !- Gas Type
    0.0160;                  !- Thickness {m}

WindowMaterial:Gas,
    Gap_1_W_0_0063,          !- Name
    Air,                     !- Gas Type
    0.0063;                  !- Thickness {m}


!-   ===========  ALL OBJECTS IN CLASS: WINDOWMATERIAL:GASMIXTURE ===========

WindowMaterial:GasMixture,
    Zone5678 Gap,            !- Name
    0.0079,                  !- Thickness {m}
    2,                       !- Number of Gases in Mixture
    Air,                     !- Gas 1 Type
    0.10,                    !- Gas 1 Fraction
    Argon,                   !- Gas 2 Type
    0.90;                    !- Gas 2 Fraction


!-   ===========  ALL OBJECTS IN CLASS: WINDOWMATERIAL:SHADE ===========

WindowMaterial:Shade,
    Movable Insulation Material,  !- Name
    0,                       !- Solar Transmittance {dimensionless}
    0.8,                     !- Solar Reflectance {dimensionless}
    0,                       !- Visible Transmittance {dimensionless}
    0.8,                     !- Visible Reflectance {dimensionless}
    0.9,                     !- Infrared Hemispherical Emissivity {dimensionless}
    0,                       !- Infrared Transmittance {dimensionless}
    0.0254,                  !- Thickness {m}
    0.01442,                 !- Conductivity {W/m-K}
    0.0254,                  !- Shade to Glass Distance {m}
    0,                       !- Top Opening Multiplier
    0,                       !- Bottom Opening Multiplier
    0,                       !- Left-Side Opening Multiplier
    0,                       !- Right-Side Opening Multiplier
    0;                       !- Airflow Permeability {dimensionless}

WindowMaterial:Shade,
    Shading Material Tvis40, !- Name
    0.4,                     !- Solar Transmittance {dimensionless}
    0.5,                     !- Solar Reflectance {dimensionless}
    0.4,                     !- Visible Transmittance {dimensionless}
    0.5,                     !- Visible Reflectance {dimensionless}
    0.9,                     !- Infrared Hemispherical Emissivity {dimensionless}
    0,                       !- Infrared Transmittance {dimensionless}
    0.00254,                 !- Thickness {m}
    0.1442,                  !- Conductivity {W/m-K}
    0.0254,                  !- Shade to Glass Distance {m}
    0,                       !- Top Opening Multiplier
    0,                       !- Bottom Opening Multiplier
    0,                       !- Left-Side Opening Multiplier
    0,                       !- Right-Side Opening Multiplier
    0;                       !- Airflow Permeability {dimensionless}

WindowMaterial:Shade,
    Shading Material Tvis25, !- Name
    0.25,                    !- Solar Transmittance {dimensionless}
    0.7,                     !- Solar Reflectance {dimensionless}
    0.25,                    !- Visible Transmittance {dimensionless}
    0.7,                     !- Visible Reflectance {dimensionless}
    0.9,                     !- Infrared Hemispherical Emissivity {dimensionless}
    0,                       !- Infrared Transmittance {dimensionless}
    0.00254,                 !- Thickness {m}